<configuration>
	<input>
		<net-file value="iota.net.xml"/>
		<route-files value="iota.rou.xml"/>
		<gui-settings-file value="iota.setting.xml"/>
	</input>
	<time>
		<begin value="10"/>
		<step-length value="0.1" />
	</time>

</configuration>