<edges>
<edge from="n1" to="n4" id="1to4" type="toplane"/>
<edge from="n2" to="n4" id="2to4" type="midlane"/>
<edge from="n3" to="n4" id="3to4" type="botlane"/>
<edge from="n4" to="n5" id="4to5" type="lstlane"/>
</edges>